<additional>
    <edgeData id="example" file="data.xml" period="60"/>
</additional>