<additional>
  <vType id="passenger" vClass="passenger"/>
</additional>